CM Add your....
CM ...comment(s)...
CM ...here
CE
SY minFrequency=3.000
SY WL=299.8/minFrequency, M=WL/999	'NEC segment minimum length
SY len=9.800	'Radiator length
SY fph=1.500	'Feed point height
GW	1	3	0.700	0	fph	0.700	0	fph+3*M	0.00130	'Short wire for excitation
GW	2	70	0.700	0	fph+3*M	0.3	4.000	fph+len	0.00130	'Rest of radiatior
GW	3	70	0.300	4.0	fph+len	0	8.000	2.0	    0.00130	'Rest of radiatior
GW      0        4      0.700   0.000   1.500   1.200   0.000   1.500   0.00400
GW      0        3      1.200   0.000   1.500   1.300   0.300   1.500   0.00400
GW      0       21      1.300   0.300   1.500   1.470   2.400   1.500   0.00400
GW      0       18      1.470   2.400   1.500   1.350   4.240   1.500   0.00400
GW      0       19      1.350   4.240   1.500   0.900   6.140   1.500   0.00400
GW      0       17      0.900   6.140   1.500   0.320   7.840   1.500   0.00400
GW      0        2      0.320   7.840   1.500   0.220   8.050   1.500   0.00400
GW      0        4      0.700   0.000   1.200   1.200   0.000   1.200   0.00400
GW      0        4      1.200   0.000   1.200   1.300   0.450   1.200   0.00400
GW      0       19      1.300   0.450   1.200   1.470   2.400   1.200   0.00400
GW      0       18      1.470   2.400   1.200   1.350   4.240   1.200   0.00400
GW      0       19      1.350   4.240   1.200   0.900   6.140   1.200   0.00400
GW      0       16      0.900   6.140   1.200   0.320   7.700   1.200   0.00400
GW      0        4      0.320   7.700   1.200   0.220   8.150   1.200   0.00400
GW      0        2      1.200   0.000   1.500   1.200   0.000   1.200   0.00400
GW      0        3      1.300   0.300   1.500   1.300   0.450   1.200   0.00400
GW      0        2      1.470   2.400   1.500   1.470   2.400   1.200   0.00400
GW      0        2      1.350   4.240   1.500   1.350   4.240   1.200   0.00400
GW      0        2      0.900   6.140   1.500   0.900   6.140   1.200   0.00400
GW      0        3      0.320   7.840   1.500   0.320   7.700   1.200   0.00400
GW      0        3      0.220   8.050   1.500   0.220   8.150   1.200   0.00400
GW      0        2      0.700   0.000   1.500   0.700   0.000   1.200   0.00400
GW      0        4      -0.700  0.000   1.500   -1.200  0.000   1.500   0.00400
GW      0        3      -1.200  0.000   1.500   -1.300  0.300   1.500   0.00400
GW      0       21      -1.300  0.300   1.500   -1.470  2.400   1.500   0.00400
GW      0       18      -1.470  2.400   1.500   -1.350  4.240   1.500   0.00400
GW      0       19      -1.350  4.240   1.500   -0.900  6.140   1.500   0.00400
GW      0       17      -0.900  6.140   1.500   -0.320  7.840   1.500   0.00400
GW      0        2      -0.320  7.840   1.500   -0.220  8.050   1.500   0.00400
GW      0        4      -0.700  0.000   1.200   -1.200  0.000   1.200   0.00400
GW      0        4      -1.200  0.000   1.200   -1.300  0.450   1.200   0.00400
GW      0       19      -1.300  0.450   1.200   -1.470  2.400   1.200   0.00400
GW      0       18      -1.470  2.400   1.200   -1.350  4.240   1.200   0.00400
GW      0       19      -1.350  4.240   1.200   -0.900  6.140   1.200   0.00400
GW      0       16      -0.900  6.140   1.200   -0.320  7.700   1.200   0.00400
GW      0        4      -0.320  7.700   1.200   -0.220  8.150   1.200   0.00400
GW      0        2      -1.200  0.000   1.500   -1.200  0.000   1.200   0.00400
GW      0        3      -1.300  0.300   1.500   -1.300  0.450   1.200   0.00400
GW      0        2      -1.470  2.400   1.500   -1.470  2.400   1.200   0.00400
GW      0        2      -1.350  4.240   1.500   -1.350  4.240   1.200   0.00400
GW      0        2      -0.900  6.140   1.500   -0.900  6.140   1.200   0.00400
GW      0        3      -0.320  7.840   1.500   -0.320  7.700   1.200   0.00400
GW      0        3      -0.220  8.050   1.500   -0.220  8.150   1.200   0.00400
GW      0        2      -0.700  0.000   1.500   -0.700  0.000   1.200   0.00400
GW      0       13      0.700   0.000   1.500   -0.700  0.000   1.500   0.00400
GE	-1
GN	2	0	0	0	80	0.005
EK
EX	0	1	2	0	1	0	0
FR	0	0	0	0	3.5	0
EN
