CM kommenttia
CM lisaa kommenttia
CE
SY freq=7.000
SY WL=299.8/freq, M=WL/999	'Minimal NEC segment length
SY len=11.5	'Length
SY fph=1.50000	'feed point height
GW	1	3	0.700	0	fph	0.700	0	fph+3*M	0.0012941	'Short wire for excitation source
GW	2	70	0.700	0	fph+3*M	0	2.500	fph+len	0.0012941	'Rest of radiatior.
GW      0        3      0.700   0.000   1.500   1.200   0.000   1.500   0.00400
GW      0        3      1.200   0.000   1.500   1.300   0.300   1.500   0.00400
GW      0       21      1.300   0.300   1.500   1.470   2.400   1.500   0.00400
GW      0       17      1.470   2.400   1.500   1.350   4.240   1.500   0.00400
GW      0       19      1.350   4.240   1.500   0.900   6.140   1.500   0.00400
GW      0       17      0.900   6.140   1.500   0.320   7.840   1.500   0.00400
GW      0        1      0.320   7.840   1.500   0.220   8.050   1.500   0.00400
GW      0        3      0.700   0.000   1.200   1.200   0.000   1.200   0.00400
GW      0        3      1.200   0.000   1.200   1.300   0.450   1.200   0.00400
GW      0       19      1.300   0.450   1.200   1.470   2.400   1.200   0.00400
GW      0       17      1.470   2.400   1.200   1.350   4.240   1.200   0.00400
GW      0       19      1.350   4.240   1.200   0.900   6.140   1.200   0.00400
GW      0       15      0.900   6.140   1.200   0.320   7.700   1.200   0.00400
GW      0        3      0.320   7.700   1.200   0.220   8.150   1.200   0.00400
GW      0        1      1.200   0.000   1.500   1.200   0.000   1.200   0.00400
GW      0        3      1.300   0.300   1.500   1.300   0.450   1.200   0.00400
GW      0        1      1.470   2.400   1.500   1.470   2.400   1.200   0.00400
GW      0        1      1.350   4.240   1.500   1.350   4.240   1.200   0.00400
GW      0        1      0.900   6.140   1.500   0.900   6.140   1.200   0.00400
GW      0        3      0.320   7.840   1.500   0.320   7.700   1.200   0.00400
GW      0        3      0.220   8.050   1.500   0.220   8.150   1.200   0.00400
GW      0        1      0.700   0.000   1.500   0.700   0.000   1.200   0.00400
GW      0        3      -0.700  0.000   1.500   -1.200  0.000   1.500   0.00400
GW      0        3      -1.200  0.000   1.500   -1.300  0.300   1.500   0.00400
GW      0       21      -1.300  0.300   1.500   -1.470  2.400   1.500   0.00400
GW      0       17      -1.470  2.400   1.500   -1.350  4.240   1.500   0.00400
GW      0       19      -1.350  4.240   1.500   -0.900  6.140   1.500   0.00400
GW      0       17      -0.900  6.140   1.500   -0.320  7.840   1.500   0.00400
GW      0        1      -0.320  7.840   1.500   -0.220  8.050   1.500   0.00400
GW      0        3      -0.700  0.000   1.200   -1.200  0.000   1.200   0.00400
GW      0        3      -1.200  0.000   1.200   -1.300  0.450   1.200   0.00400
GW      0       19      -1.300  0.450   1.200   -1.470  2.400   1.200   0.00400
GW      0       17      -1.470  2.400   1.200   -1.350  4.240   1.200   0.00400
GW      0       19      -1.350  4.240   1.200   -0.900  6.140   1.200   0.00400
GW      0       15      -0.900  6.140   1.200   -0.320  7.700   1.200   0.00400
GW      0        3      -0.320  7.700   1.200   -0.220  8.150   1.200   0.00400
GW      0        1      -1.200  0.000   1.500   -1.200  0.000   1.200   0.00400
GW      0        3      -1.300  0.300   1.500   -1.300  0.450   1.200   0.00400
GW      0        1      -1.470  2.400   1.500   -1.470  2.400   1.200   0.00400
GW      0        1      -1.350  4.240   1.500   -1.350  4.240   1.200   0.00400
GW      0        1      -0.900  6.140   1.500   -0.900  6.140   1.200   0.00400
GW      0        3      -0.320  7.840   1.500   -0.320  7.700   1.200   0.00400
GW      0        3      -0.220  8.050   1.500   -0.220  8.150   1.200   0.00400
GW      0        1      -0.700  0.000   1.500   -0.700  0.000   1.200   0.00400
GW      0       13      0.700   0.000   1.500   -0.700  0.000   1.500   0.00400
GE	-1
GN	2	0	0	0	80	0.005
EK
EX	0	1	2	0	1	0	0
FR	0	60	0	0	freq-0.5	0.025
EN
